<?xml version="1.0" encoding="UTF-8"?>

<!-- generated on 04/07/20 13:41:33 by Eclipse SUMO duarouter Version 1.5.0
<configuration xmlns:xsi="http://www.w3.org/2001/XMLSchema-instance" xsi:noNamespaceSchemaLocation="http://sumo.dlr.de/xsd/duarouterConfiguration.xsd">

    <input>
        <net-file value="openStMap.net.xml"/>
        <route-files value="od_file.odtrips.xml"/>
    </input>

    <output>
        <output-file value="od_route_file.odtrips.rou.xml"/>
        <alternatives-output value="od_route_file.odtrips.rou.alt.xml"/>
    </output>

    <report>
        <xml-validation value="never"/>
        <no-step-log value="true"/>
    </report>

</configuration>
-->

<routes xmlns:xsi="http://www.w3.org/2001/XMLSchema-instance" xsi:noNamespaceSchemaLocation="http://sumo.dlr.de/xsd/routes_file.xsd">
    <vehicle id="63" depart="0.79" departLane="free" departSpeed="max" fromTaz="1" toTaz="3">
        <route edges="-470429721#1 -470429721#0 -4947493#3"/>
    </vehicle>
    <vehicle id="9" depart="18.39" departLane="free" departSpeed="max" fromTaz="1" toTaz="2">
        <route edges="-470429721#1"/>
    </vehicle>
    <vehicle id="5" depart="55.65" departLane="free" departSpeed="max" fromTaz="1" toTaz="2">
        <route edges="-470429721#1"/>
    </vehicle>
    <vehicle id="19" depart="163.02" departLane="free" departSpeed="max" fromTaz="1" toTaz="2">
        <route edges="-470429721#1"/>
    </vehicle>
    <vehicle id="62" depart="207.72" departLane="free" departSpeed="max" fromTaz="1" toTaz="3">
        <route edges="-470429721#1 -470429721#0 -4947493#3"/>
    </vehicle>
    <vehicle id="68" depart="212.57" departLane="free" departSpeed="max" fromTaz="1" toTaz="3">
        <route edges="-470429721#1 -470429721#0 -4947493#3"/>
    </vehicle>
    <vehicle id="27" depart="238.38" departLane="free" departSpeed="max" fromTaz="1" toTaz="2">
        <route edges="-470429721#1"/>
    </vehicle>
    <vehicle id="79" depart="319.61" departLane="free" departSpeed="max" fromTaz="1" toTaz="4">
        <route edges="-470429721#1 -470429721#0 -4947493#3"/>
    </vehicle>
    <vehicle id="49" depart="353.09" departLane="free" departSpeed="max" fromTaz="1" toTaz="2">
        <route edges="-470429721#1"/>
    </vehicle>
    <vehicle id="7" depart="381.92" departLane="free" departSpeed="max" fromTaz="1" toTaz="2">
        <route edges="-470429721#1"/>
    </vehicle>
    <vehicle id="65" depart="386.17" departLane="free" departSpeed="max" fromTaz="1" toTaz="3">
        <route edges="-470429721#1 -470429721#0 -4947493#3"/>
    </vehicle>
    <vehicle id="42" depart="410.68" departLane="free" departSpeed="max" fromTaz="1" toTaz="2">
        <route edges="-470429721#1"/>
    </vehicle>
    <vehicle id="74" depart="417.29" departLane="free" departSpeed="max" fromTaz="1" toTaz="4">
        <route edges="-470429721#1 -470429721#0 -4947493#3"/>
    </vehicle>
    <vehicle id="33" depart="423.68" departLane="free" departSpeed="max" fromTaz="1" toTaz="2">
        <route edges="-470429721#1"/>
    </vehicle>
    <vehicle id="30" depart="433.87" departLane="free" departSpeed="max" fromTaz="1" toTaz="2">
        <route edges="-470429721#1"/>
    </vehicle>
    <vehicle id="26" depart="436.43" departLane="free" departSpeed="max" fromTaz="1" toTaz="2">
        <route edges="-470429721#1"/>
    </vehicle>
    <vehicle id="1" depart="476.94" departLane="free" departSpeed="max" fromTaz="1" toTaz="2">
        <route edges="-470429721#1"/>
    </vehicle>
    <vehicle id="61" depart="587.91" departLane="free" departSpeed="max" fromTaz="1" toTaz="3">
        <route edges="-470429721#1 -470429721#0 -4947493#3"/>
    </vehicle>
    <vehicle id="78" depart="620.30" departLane="free" departSpeed="max" fromTaz="1" toTaz="4">
        <route edges="-470429721#1 -470429721#0 -4947493#3"/>
    </vehicle>
    <vehicle id="15" depart="674.42" departLane="free" departSpeed="max" fromTaz="1" toTaz="2">
        <route edges="-470429721#1"/>
    </vehicle>
    <vehicle id="17" depart="724.95" departLane="free" departSpeed="max" fromTaz="1" toTaz="2">
        <route edges="-470429721#1"/>
    </vehicle>
    <vehicle id="3" depart="754.69" departLane="free" departSpeed="max" fromTaz="1" toTaz="2">
        <route edges="-470429721#1"/>
    </vehicle>
    <vehicle id="14" depart="764.28" departLane="free" departSpeed="max" fromTaz="1" toTaz="2">
        <route edges="-470429721#1"/>
    </vehicle>
    <vehicle id="60" depart="782.98" departLane="free" departSpeed="max" fromTaz="1" toTaz="3">
        <route edges="-470429721#1 -470429721#0 -4947493#3"/>
    </vehicle>
    <vehicle id="24" depart="842.52" departLane="free" departSpeed="max" fromTaz="1" toTaz="2">
        <route edges="-470429721#1"/>
    </vehicle>
    <vehicle id="16" depart="869.60" departLane="free" departSpeed="max" fromTaz="1" toTaz="2">
        <route edges="-470429721#1"/>
    </vehicle>
    <vehicle id="12" depart="912.02" departLane="free" departSpeed="max" fromTaz="1" toTaz="2">
        <route edges="-470429721#1"/>
    </vehicle>
    <vehicle id="40" depart="927.91" departLane="free" departSpeed="max" fromTaz="1" toTaz="2">
        <route edges="-470429721#1"/>
    </vehicle>
    <vehicle id="29" depart="972.03" departLane="free" departSpeed="max" fromTaz="1" toTaz="2">
        <route edges="-470429721#1"/>
    </vehicle>
    <vehicle id="54" depart="1034.54" departLane="free" departSpeed="max" fromTaz="1" toTaz="3">
        <route edges="-470429721#1 -470429721#0 -4947493#3"/>
    </vehicle>
    <vehicle id="39" depart="1038.84" departLane="free" departSpeed="max" fromTaz="1" toTaz="2">
        <route edges="-470429721#1"/>
    </vehicle>
    <vehicle id="71" depart="1049.14" departLane="free" departSpeed="max" fromTaz="1" toTaz="4">
        <route edges="-470429721#1 -470429721#0 -4947493#3"/>
    </vehicle>
    <vehicle id="11" depart="1086.27" departLane="free" departSpeed="max" fromTaz="1" toTaz="2">
        <route edges="-470429721#1"/>
    </vehicle>
    <vehicle id="77" depart="1090.73" departLane="free" departSpeed="max" fromTaz="1" toTaz="4">
        <route edges="-470429721#1 -470429721#0 -4947493#3"/>
    </vehicle>
    <vehicle id="28" depart="1118.06" departLane="free" departSpeed="max" fromTaz="1" toTaz="2">
        <route edges="-470429721#1"/>
    </vehicle>
    <vehicle id="55" depart="1130.77" departLane="free" departSpeed="max" fromTaz="1" toTaz="3">
        <route edges="-470429721#1 -470429721#0 -4947493#3"/>
    </vehicle>
    <vehicle id="69" depart="1256.12" departLane="free" departSpeed="max" fromTaz="1" toTaz="3">
        <route edges="-470429721#1 -470429721#0 -4947493#3"/>
    </vehicle>
    <vehicle id="75" depart="1284.46" departLane="free" departSpeed="max" fromTaz="1" toTaz="4">
        <route edges="-470429721#1 -470429721#0 -4947493#3"/>
    </vehicle>
    <vehicle id="35" depart="1302.21" departLane="free" departSpeed="max" fromTaz="1" toTaz="2">
        <route edges="-470429721#1"/>
    </vehicle>
    <vehicle id="76" depart="1338.12" departLane="free" departSpeed="max" fromTaz="1" toTaz="4">
        <route edges="-470429721#1 -470429721#0 -4947493#3"/>
    </vehicle>
    <vehicle id="8" depart="1580.77" departLane="free" departSpeed="max" fromTaz="1" toTaz="2">
        <route edges="-470429721#1"/>
    </vehicle>
    <vehicle id="22" depart="1651.42" departLane="free" departSpeed="max" fromTaz="1" toTaz="2">
        <route edges="-470429721#1"/>
    </vehicle>
    <vehicle id="56" depart="1669.56" departLane="free" departSpeed="max" fromTaz="1" toTaz="3">
        <route edges="-470429721#1 -470429721#0 -4947493#3"/>
    </vehicle>
    <vehicle id="58" depart="1684.20" departLane="free" departSpeed="max" fromTaz="1" toTaz="3">
        <route edges="-470429721#1 -470429721#0 -4947493#3"/>
    </vehicle>
    <vehicle id="44" depart="1762.81" departLane="free" departSpeed="max" fromTaz="1" toTaz="2">
        <route edges="-470429721#1"/>
    </vehicle>
    <vehicle id="32" depart="1763.21" departLane="free" departSpeed="max" fromTaz="1" toTaz="2">
        <route edges="-470429721#1"/>
    </vehicle>
    <vehicle id="6" depart="1817.33" departLane="free" departSpeed="max" fromTaz="1" toTaz="2">
        <route edges="-470429721#1"/>
    </vehicle>
    <vehicle id="48" depart="1822.07" departLane="free" departSpeed="max" fromTaz="1" toTaz="2">
        <route edges="-470429721#1"/>
    </vehicle>
    <vehicle id="2" depart="1847.70" departLane="free" departSpeed="max" fromTaz="1" toTaz="2">
        <route edges="-470429721#1"/>
    </vehicle>
    <vehicle id="18" depart="1848.48" departLane="free" departSpeed="max" fromTaz="1" toTaz="2">
        <route edges="-470429721#1"/>
    </vehicle>
    <vehicle id="64" depart="1935.92" departLane="free" departSpeed="max" fromTaz="1" toTaz="3">
        <route edges="-470429721#1 -470429721#0 -4947493#3"/>
    </vehicle>
    <vehicle id="25" depart="1943.63" departLane="free" departSpeed="max" fromTaz="1" toTaz="2">
        <route edges="-470429721#1"/>
    </vehicle>
    <vehicle id="57" depart="1972.95" departLane="free" departSpeed="max" fromTaz="1" toTaz="3">
        <route edges="-470429721#1 -470429721#0 -4947493#3"/>
    </vehicle>
    <vehicle id="13" depart="2039.96" departLane="free" departSpeed="max" fromTaz="1" toTaz="2">
        <route edges="-470429721#1"/>
    </vehicle>
    <vehicle id="45" depart="2104.54" departLane="free" departSpeed="max" fromTaz="1" toTaz="2">
        <route edges="-470429721#1"/>
    </vehicle>
    <vehicle id="72" depart="2115.84" departLane="free" departSpeed="max" fromTaz="1" toTaz="4">
        <route edges="-470429721#1 -470429721#0 -4947493#3"/>
    </vehicle>
    <vehicle id="66" depart="2137.39" departLane="free" departSpeed="max" fromTaz="1" toTaz="3">
        <route edges="-470429721#1 -470429721#0 -4947493#3"/>
    </vehicle>
    <vehicle id="43" depart="2138.70" departLane="free" departSpeed="max" fromTaz="1" toTaz="2">
        <route edges="-470429721#1"/>
    </vehicle>
    <vehicle id="34" depart="2169.75" departLane="free" departSpeed="max" fromTaz="1" toTaz="2">
        <route edges="-470429721#1"/>
    </vehicle>
    <vehicle id="46" depart="2198.82" departLane="free" departSpeed="max" fromTaz="1" toTaz="2">
        <route edges="-470429721#1"/>
    </vehicle>
    <vehicle id="20" depart="2239.54" departLane="free" departSpeed="max" fromTaz="1" toTaz="2">
        <route edges="-470429721#1"/>
    </vehicle>
    <vehicle id="38" depart="2264.40" departLane="free" departSpeed="max" fromTaz="1" toTaz="2">
        <route edges="-470429721#1"/>
    </vehicle>
    <vehicle id="37" depart="2276.89" departLane="free" departSpeed="max" fromTaz="1" toTaz="2">
        <route edges="-470429721#1"/>
    </vehicle>
    <vehicle id="36" depart="2279.74" departLane="free" departSpeed="max" fromTaz="1" toTaz="2">
        <route edges="-470429721#1"/>
    </vehicle>
    <vehicle id="10" depart="2300.46" departLane="free" departSpeed="max" fromTaz="1" toTaz="2">
        <route edges="-470429721#1"/>
    </vehicle>
    <vehicle id="41" depart="2359.25" departLane="free" departSpeed="max" fromTaz="1" toTaz="2">
        <route edges="-470429721#1"/>
    </vehicle>
    <vehicle id="47" depart="2402.94" departLane="free" departSpeed="max" fromTaz="1" toTaz="2">
        <route edges="-470429721#1"/>
    </vehicle>
    <vehicle id="21" depart="2436.32" departLane="free" departSpeed="max" fromTaz="1" toTaz="2">
        <route edges="-470429721#1"/>
    </vehicle>
    <vehicle id="0" depart="2488.08" departLane="free" departSpeed="max" fromTaz="1" toTaz="2">
        <route edges="-470429721#1"/>
    </vehicle>
    <vehicle id="67" depart="2531.01" departLane="free" departSpeed="max" fromTaz="1" toTaz="3">
        <route edges="-470429721#1 -470429721#0 -4947493#3"/>
    </vehicle>
    <vehicle id="59" depart="2624.03" departLane="free" departSpeed="max" fromTaz="1" toTaz="3">
        <route edges="-470429721#1 -470429721#0 -4947493#3"/>
    </vehicle>
    <vehicle id="51" depart="2807.46" departLane="free" departSpeed="max" fromTaz="1" toTaz="3">
        <route edges="-470429721#1 -470429721#0 -4947493#3"/>
    </vehicle>
    <vehicle id="73" depart="2869.56" departLane="free" departSpeed="max" fromTaz="1" toTaz="4">
        <route edges="-470429721#1 -470429721#0 -4947493#3"/>
    </vehicle>
    <vehicle id="4" depart="2950.16" departLane="free" departSpeed="max" fromTaz="1" toTaz="2">
        <route edges="-470429721#1"/>
    </vehicle>
    <vehicle id="50" depart="3047.20" departLane="free" departSpeed="max" fromTaz="1" toTaz="3">
        <route edges="-470429721#1 -470429721#0 -4947493#3"/>
    </vehicle>
    <vehicle id="23" depart="3181.59" departLane="free" departSpeed="max" fromTaz="1" toTaz="2">
        <route edges="-470429721#1"/>
    </vehicle>
    <vehicle id="70" depart="3327.45" departLane="free" departSpeed="max" fromTaz="1" toTaz="4">
        <route edges="-470429721#1 -470429721#0 -4947493#3"/>
    </vehicle>
    <vehicle id="31" depart="3381.69" departLane="free" departSpeed="max" fromTaz="1" toTaz="2">
        <route edges="-470429721#1"/>
    </vehicle>
    <vehicle id="53" depart="3425.09" departLane="free" departSpeed="max" fromTaz="1" toTaz="3">
        <route edges="-470429721#1 -470429721#0 -4947493#3"/>
    </vehicle>
    <vehicle id="52" depart="3573.33" departLane="free" departSpeed="max" fromTaz="1" toTaz="3">
        <route edges="-470429721#1 -470429721#0 -4947493#3"/>
    </vehicle>
</routes>
