<?xml version="1.0" encoding="UTF-8"?>

<!-- generated on 04/06/20 17:59:34 by Eclipse SUMO netconvert Version 1.5.0
<configuration xmlns:xsi="http://www.w3.org/2001/XMLSchema-instance" xsi:noNamespaceSchemaLocation="http://sumo.dlr.de/xsd/netconvertConfiguration.xsd">

    <input>
        <osm-files value="map.osm"/>
    </input>

    <output>
        <output-file value="openStMap.net.xml"/>
    </output>

    <projection>
        <proj.utm value="true"/>
    </projection>

    <report>
        <aggregate-warnings value="5"/>
    </report>

</configuration>
-->

<net version="1.3" junctionCornerDetail="5" limitTurnSpeed="5.50" xmlns:xsi="http://www.w3.org/2001/XMLSchema-instance" xsi:noNamespaceSchemaLocation="http://sumo.dlr.de/xsd/net_file.xsd">

    <location netOffset="-298611.68,4084881.62" convBoundary="0.00,0.00,1872.54,1053.88" origBoundary="174.740334,-36.888726,174.761169,-36.879008" projParameter="+proj=utm +zone=60 +ellps=WGS84 +datum=WGS84 +units=m +no_defs"/>

    <type id="highway.bridleway" priority="1" numLanes="1" speed="2.78" allow="pedestrian" oneway="1" width="2.00"/>
    <type id="highway.bus_guideway" priority="1" numLanes="1" speed="27.78" allow="bus" oneway="1"/>
    <type id="highway.cycleway" priority="1" numLanes="1" speed="8.33" allow="bicycle" oneway="0" width="1.00"/>
    <type id="highway.footway" priority="1" numLanes="1" speed="2.78" allow="pedestrian" oneway="1" width="2.00"/>
    <type id="highway.ford" priority="1" numLanes="1" speed="2.78" allow="army" oneway="0"/>
    <type id="highway.living_street" priority="2" numLanes="1" speed="2.78" disallow="tram rail_urban rail rail_electric rail_fast ship" oneway="0"/>
    <type id="highway.motorway" priority="14" numLanes="2" speed="39.44" allow="private emergency authority army vip passenger hov taxi bus coach delivery truck trailer motorcycle evehicle custom1 custom2" oneway="1"/>
    <type id="highway.motorway_link" priority="9" numLanes="1" speed="22.22" allow="private emergency authority army vip passenger hov taxi bus coach delivery truck trailer motorcycle evehicle custom1 custom2" oneway="1"/>
    <type id="highway.path" priority="1" numLanes="1" speed="2.78" allow="pedestrian bicycle" oneway="1" width="2.00"/>
    <type id="highway.pedestrian" priority="1" numLanes="1" speed="2.78" allow="pedestrian" oneway="1" width="2.00"/>
    <type id="highway.primary" priority="12" numLanes="2" speed="27.78" disallow="tram rail_urban rail rail_electric rail_fast ship" oneway="0"/>
    <type id="highway.primary_link" priority="7" numLanes="1" speed="22.22" disallow="tram rail_urban rail rail_electric rail_fast ship" oneway="0"/>
    <type id="highway.raceway" priority="15" numLanes="2" speed="83.33" allow="vip" oneway="0"/>
    <type id="highway.residential" priority="3" numLanes="1" speed="13.89" disallow="tram rail_urban rail rail_electric rail_fast ship" oneway="0"/>
    <type id="highway.secondary" priority="11" numLanes="1" speed="27.78" disallow="tram rail_urban rail rail_electric rail_fast ship" oneway="0"/>
    <type id="highway.secondary_link" priority="6" numLanes="1" speed="22.22" disallow="tram rail_urban rail rail_electric rail_fast ship" oneway="0"/>
    <type id="highway.service" priority="1" numLanes="1" speed="5.56" allow="pedestrian delivery bicycle" oneway="0"/>
    <type id="highway.stairs" priority="1" numLanes="1" speed="1.39" allow="pedestrian" oneway="1" width="2.00"/>
    <type id="highway.step" priority="1" numLanes="1" speed="1.39" allow="pedestrian" oneway="1" width="2.00"/>
    <type id="highway.steps" priority="1" numLanes="1" speed="1.39" allow="pedestrian" oneway="1" width="2.00"/>
    <type id="highway.tertiary" priority="10" numLanes="1" speed="22.22" disallow="tram rail_urban rail rail_electric rail_fast ship" oneway="0"/>
    <type id="highway.tertiary_link" priority="5" numLanes="1" speed="22.22" disallow="tram rail_urban rail rail_electric rail_fast ship" oneway="0"/>
    <type id="highway.track" priority="1" numLanes="1" speed="5.56" disallow="tram rail_urban rail rail_electric rail_fast ship" oneway="0"/>
    <type id="highway.trunk" priority="13" numLanes="2" speed="27.78" disallow="pedestrian bicycle tram rail_urban rail rail_electric rail_fast ship" oneway="0"/>
    <type id="highway.trunk_link" priority="8" numLanes="1" speed="22.22" disallow="pedestrian bicycle tram rail_urban rail rail_electric rail_fast ship" oneway="0"/>
    <type id="highway.unclassified" priority="4" numLanes="1" speed="13.89" disallow="tram rail_urban rail rail_electric rail_fast ship" oneway="0"/>
    <type id="highway.unsurfaced" priority="1" numLanes="1" speed="8.33" disallow="tram rail_urban rail rail_electric rail_fast ship" oneway="0"/>
    <type id="railway.highspeed" priority="21" numLanes="1" speed="69.44" allow="rail_fast" oneway="1"/>
    <type id="railway.light_rail" priority="19" numLanes="1" speed="27.78" allow="rail_urban" oneway="1"/>
    <type id="railway.preserved" priority="16" numLanes="1" speed="27.78" allow="rail" oneway="1"/>
    <type id="railway.rail" priority="20" numLanes="1" speed="44.44" allow="rail" oneway="1"/>
    <type id="railway.subway" priority="18" numLanes="1" speed="27.78" allow="rail_urban" oneway="1"/>
    <type id="railway.tram" priority="17" numLanes="1" speed="13.89" allow="tram" oneway="1"/>

    <edge id=":148839493_0" function="internal">
        <lane id=":148839493_0_0" index="0" disallow="tram rail_urban rail rail_electric rail_fast ship" speed="13.89" length="7.53" shape="1137.96,471.09 1130.65,472.91"/>
    </edge>
    <edge id=":148839493_1" function="internal">
        <lane id=":148839493_1_0" index="0" allow="pedestrian delivery bicycle" speed="8.99" length="3.56" shape="1137.96,471.09 1135.26,470.83 1134.62,470.27"/>
    </edge>
    <edge id=":148839493_2" function="internal">
        <lane id=":148839493_2_0" index="0" disallow="tram rail_urban rail rail_electric rail_fast ship" speed="3.65" length="2.34" shape="1137.96,471.09 1136.60,470.61 1136.01,469.94"/>
    </edge>
    <edge id=":148839493_9" function="internal">
        <lane id=":148839493_9_0" index="0" allow="pedestrian delivery bicycle" speed="8.99" length="13.83" shape="1134.62,470.27 1132.70,468.63 1130.26,464.49 1127.96,458.41"/>
    </edge>
    <edge id=":148839493_10" function="internal">
        <lane id=":148839493_10_0" index="0" disallow="tram rail_urban rail rail_electric rail_fast ship" speed="3.65" length="2.34" shape="1136.01,469.94 1136.20,469.06 1137.17,467.99"/>
    </edge>
    <edge id=":148839493_3" function="internal">
        <lane id=":148839493_3_0" index="0" allow="pedestrian delivery bicycle" speed="7.72" length="12.57" shape="1131.06,457.59 1132.75,462.39 1134.34,465.72 1135.81,467.59 1137.17,467.99"/>
    </edge>
    <edge id=":148839493_4" function="internal">
        <lane id=":148839493_4_0" index="0" allow="pedestrian delivery bicycle" speed="8.39" length="16.58" shape="1131.06,457.59 1132.72,463.85 1133.20,468.50 1132.51,471.52 1130.65,472.91"/>
    </edge>
    <edge id=":148839493_5" function="internal">
        <lane id=":148839493_5_0" index="0" allow="pedestrian delivery bicycle" speed="3.65" length="4.68" shape="1131.06,457.59 1130.59,458.96 1129.92,459.55 1129.04,459.37 1127.96,458.41"/>
    </edge>
    <edge id=":148839493_6" function="internal">
        <lane id=":148839493_6_0" index="0" allow="pedestrian delivery bicycle" speed="7.17" length="11.82" shape="1129.90,469.80 1130.36,468.95 1130.19,466.77 1129.39,463.25 1127.96,458.41"/>
    </edge>
    <edge id=":148839493_7" function="internal">
        <lane id=":148839493_7_0" index="0" disallow="tram rail_urban rail rail_electric rail_fast ship" speed="13.89" length="7.49" shape="1129.90,469.80 1137.17,467.99"/>
    </edge>
    <edge id=":148839493_8" function="internal">
        <lane id=":148839493_8_0" index="0" disallow="tram rail_urban rail rail_electric rail_fast ship" speed="3.65" length="2.34" shape="1129.90,469.80 1131.26,470.30 1131.83,470.99"/>
    </edge>
    <edge id=":148839493_11" function="internal">
        <lane id=":148839493_11_0" index="0" disallow="tram rail_urban rail rail_electric rail_fast ship" speed="3.65" length="2.34" shape="1131.83,470.99 1131.63,471.86 1130.65,472.91"/>
    </edge>
    <edge id=":1741071021_0" function="internal">
        <lane id=":1741071021_0_0" index="0" disallow="tram rail_urban rail rail_electric rail_fast ship" speed="13.89" length="0.24" shape="705.81,409.75 705.76,409.55"/>
        <lane id=":1741071021_0_1" index="1" disallow="tram rail_urban rail rail_electric rail_fast ship" speed="13.89" length="0.24" shape="708.94,409.07 708.88,408.82"/>
    </edge>
    <edge id=":1741071021_2" function="internal">
        <lane id=":1741071021_2_0" index="0" disallow="tram rail_urban rail rail_electric rail_fast ship" speed="13.89" length="0.34" shape="715.11,407.35 715.19,407.71"/>
        <lane id=":1741071021_2_1" index="1" disallow="tram rail_urban rail rail_electric rail_fast ship" speed="13.89" length="0.34" shape="711.99,408.08 712.06,408.39"/>
    </edge>
    <edge id=":1741071022_0" function="internal">
        <lane id=":1741071022_0_0" index="0" disallow="tram rail_urban rail rail_electric rail_fast ship" speed="13.89" length="0.35" shape="828.49,932.64 828.40,932.27"/>
        <lane id=":1741071022_0_1" index="1" disallow="tram rail_urban rail rail_electric rail_fast ship" speed="13.89" length="0.35" shape="831.59,931.84 831.51,931.54"/>
    </edge>
    <edge id=":1741071022_2" function="internal">
        <lane id=":1741071022_2_0" index="0" disallow="tram rail_urban rail rail_electric rail_fast ship" speed="13.89" length="0.20" shape="837.75,930.08 837.78,930.24"/>
        <lane id=":1741071022_2_1" index="1" disallow="tram rail_urban rail rail_electric rail_fast ship" speed="13.89" length="0.20" shape="834.63,930.81 834.69,931.04"/>
    </edge>
    <edge id=":25977898_0" function="internal">
        <lane id=":25977898_0_0" index="0" disallow="tram rail_urban rail rail_electric rail_fast ship" speed="3.65" length="4.67" shape="1872.59,403.81 1873.77,404.65 1874.14,405.46 1873.71,406.25 1872.48,407.01"/>
    </edge>
    <edge id=":25977901_0" function="internal">
        <lane id=":25977901_0_0" index="0" disallow="tram rail_urban rail rail_electric rail_fast ship" speed="3.65" length="4.67" shape="1855.39,262.81 1856.75,263.31 1857.33,263.99 1857.13,264.86 1856.16,265.92"/>
    </edge>
    <edge id=":25977902_0" function="internal">
        <lane id=":25977902_0_0" index="0" disallow="tram rail_urban rail rail_electric rail_fast ship" speed="13.89" length="14.16" shape="1452.97,510.83 1449.80,497.03"/>
    </edge>
    <edge id=":25977902_1" function="internal">
        <lane id=":25977902_1_0" index="0" disallow="tram rail_urban rail rail_electric rail_fast ship" speed="8.06" length="5.70" shape="1452.97,510.83 1452.72,507.01 1453.33,505.24"/>
    </edge>
    <edge id=":25977902_2" function="internal">
        <lane id=":25977902_2_0" index="0" disallow="tram rail_urban rail rail_electric rail_fast ship" speed="3.65" length="2.34" shape="1452.97,510.83 1453.51,509.49 1454.21,508.93"/>
    </edge>
    <edge id=":25977902_9" function="internal">
        <lane id=":25977902_9_0" index="0" disallow="tram rail_urban rail rail_electric rail_fast ship" speed="8.06" length="8.39" shape="1453.33,505.24 1453.75,503.98 1456.06,501.76 1459.65,500.34"/>
    </edge>
    <edge id=":25977902_10" function="internal">
        <lane id=":25977902_10_0" index="0" disallow="tram rail_urban rail rail_electric rail_fast ship" speed="3.65" length="2.34" shape="1454.21,508.93 1455.07,509.16 1456.10,510.17"/>
    </edge>
    <edge id=":25977902_3" function="internal">
        <lane id=":25977902_3_0" index="0" disallow="tram rail_urban rail rail_electric rail_fast ship" speed="6.58" length="9.04" shape="1460.41,503.45 1458.10,504.36 1456.61,505.79 1455.95,507.72 1456.10,510.17"/>
    </edge>
    <edge id=":25977902_4" function="internal">
        <lane id=":25977902_4_0" index="0" disallow="tram rail_urban rail rail_electric rail_fast ship" speed="8.00" length="14.12" shape="1460.41,503.45 1456.56,503.82 1453.51,502.87 1451.25,500.61 1449.80,497.03"/>
    </edge>
    <edge id=":25977902_5" function="internal">
        <lane id=":25977902_5_0" index="0" disallow="tram rail_urban rail rail_electric rail_fast ship" speed="3.65" length="4.67" shape="1460.41,503.45 1459.05,502.95 1458.47,502.27 1458.67,501.40 1459.65,500.34"/>
    </edge>
    <edge id=":25977902_6" function="internal">
        <lane id=":25977902_6_0" index="0" disallow="tram rail_urban rail rail_electric rail_fast ship" speed="6.51" length="8.99" shape="1452.90,496.25 1453.83,498.53 1455.26,499.97 1457.20,500.57 1459.65,500.34"/>
    </edge>
    <edge id=":25977902_7" function="internal">
        <lane id=":25977902_7_0" index="0" disallow="tram rail_urban rail rail_electric rail_fast ship" speed="13.89" length="14.28" shape="1452.90,496.25 1456.10,510.17"/>
    </edge>
    <edge id=":25977902_8" function="internal">
        <lane id=":25977902_8_0" index="0" disallow="tram rail_urban rail rail_electric rail_fast ship" speed="3.65" length="2.34" shape="1452.90,496.25 1452.42,497.61 1451.74,498.19"/>
    </edge>
    <edge id=":25977902_11" function="internal">
        <lane id=":25977902_11_0" index="0" disallow="tram rail_urban rail rail_electric rail_fast ship" speed="3.65" length="2.34" shape="1451.74,498.19 1450.86,498.00 1449.80,497.03"/>
    </edge>
    <edge id=":25977909_0" function="internal">
        <lane id=":25977909_0_0" index="0" disallow="tram rail_urban rail rail_electric rail_fast ship" speed="6.51" length="8.98" shape="1448.89,493.41 1447.97,491.14 1446.53,489.70 1444.59,489.09 1442.14,489.32"/>
    </edge>
    <edge id=":25977909_1" function="internal">
        <lane id=":25977909_1_0" index="0" disallow="tram rail_urban rail rail_electric rail_fast ship" speed="13.89" length="14.31" shape="1448.89,493.41 1445.58,479.49"/>
    </edge>
    <edge id=":25977909_2" function="internal">
        <lane id=":25977909_2_0" index="0" disallow="tram rail_urban rail rail_electric rail_fast ship" speed="3.65" length="2.34" shape="1448.89,493.41 1449.38,492.05 1450.06,491.47"/>
    </edge>
    <edge id=":25977909_9" function="internal">
        <lane id=":25977909_9_0" index="0" disallow="tram rail_urban rail rail_electric rail_fast ship" speed="3.65" length="2.34" shape="1450.06,491.47 1450.93,491.66 1452.00,492.63"/>
    </edge>
    <edge id=":25977909_3" function="internal">
        <lane id=":25977909_3_0" index="0" disallow="tram rail_urban rail rail_electric rail_fast ship" speed="13.89" length="14.23" shape="1448.70,478.79 1452.00,492.63"/>
    </edge>
    <edge id=":25977909_4" function="internal">
        <lane id=":25977909_4_0" index="0" disallow="tram rail_urban rail rail_electric rail_fast ship" speed="8.02" length="5.80" shape="1448.70,478.79 1449.02,482.64 1448.41,484.48"/>
    </edge>
    <edge id=":25977909_5" function="internal">
        <lane id=":25977909_5_0" index="0" disallow="tram rail_urban rail rail_electric rail_fast ship" speed="3.65" length="2.34" shape="1448.70,478.79 1448.19,480.13 1447.50,480.70"/>
    </edge>
    <edge id=":25977909_10" function="internal">
        <lane id=":25977909_10_0" index="0" disallow="tram rail_urban rail rail_electric rail_fast ship" speed="8.02" length="8.31" shape="1448.41,484.48 1448.02,485.67 1445.73,487.90 1442.14,489.32"/>
    </edge>
    <edge id=":25977909_11" function="internal">
        <lane id=":25977909_11_0" index="0" disallow="tram rail_urban rail rail_electric rail_fast ship" speed="3.65" length="2.34" shape="1447.50,480.70 1446.63,480.49 1445.58,479.49"/>
    </edge>
    <edge id=":25977909_6" function="internal">
        <lane id=":25977909_6_0" index="0" disallow="tram rail_urban rail rail_electric rail_fast ship" speed="6.53" length="9.01" shape="1441.39,486.21 1443.68,485.30 1445.15,483.88 1445.78,481.95 1445.58,479.49"/>
    </edge>
    <edge id=":25977909_7" function="internal">
        <lane id=":25977909_7_0" index="0" disallow="tram rail_urban rail rail_electric rail_fast ship" speed="8.01" length="14.11" shape="1441.39,486.21 1445.24,485.85 1448.29,486.80 1450.54,489.06 1452.00,492.63"/>
    </edge>
    <edge id=":25977909_8" function="internal">
        <lane id=":25977909_8_0" index="0" disallow="tram rail_urban rail rail_electric rail_fast ship" speed="3.65" length="4.67" shape="1441.39,486.21 1442.74,486.70 1443.32,487.39 1443.12,488.26 1442.14,489.32"/>
    </edge>
    <edge id=":25977912_0" function="internal">
        <lane id=":25977912_0_0" index="0" disallow="tram rail_urban rail rail_electric rail_fast ship" speed="13.89" length="14.49" shape="1086.87,567.30 1083.61,553.18"/>
    </edge>
    <edge id=":25977912_1" function="internal">
        <lane id=":25977912_1_0" index="0" disallow="tram rail_urban rail rail_electric rail_fast ship" speed="8.01" length="6.02" shape="1086.87,567.30 1086.51,563.42 1087.15,561.40"/>
    </edge>
    <edge id=":25977912_2" function="internal">
        <lane id=":25977912_2_0" index="0" disallow="tram rail_urban rail rail_electric rail_fast ship" speed="3.65" length="2.34" shape="1086.87,567.30 1087.37,565.94 1088.05,565.37"/>
    </edge>
    <edge id=":25977912_9" function="internal">
        <lane id=":25977912_9_0" index="0" disallow="tram rail_urban rail rail_electric rail_fast ship" speed="8.01" length="8.22" shape="1087.15,561.40 1087.48,560.36 1089.79,558.11 1093.43,556.67"/>
    </edge>
    <edge id=":25977912_10" function="internal">
        <lane id=":25977912_10_0" index="0" disallow="tram rail_urban rail rail_electric rail_fast ship" speed="3.65" length="2.34" shape="1088.05,565.37 1088.92,565.57 1089.98,566.55"/>
    </edge>
    <edge id=":25977912_3" function="internal">
        <lane id=":25977912_3_0" index="0" disallow="tram rail_urban rail rail_electric rail_fast ship" speed="6.52" length="9.07" shape="1094.17,559.79 1091.85,560.70 1090.37,562.14 1089.75,564.08 1089.98,566.55"/>
    </edge>
    <edge id=":25977912_4" function="internal">
        <lane id=":25977912_4_0" index="0" disallow="tram rail_urban rail rail_electric rail_fast ship" speed="7.97" length="14.26" shape="1094.17,559.79 1090.27,560.15 1087.21,559.17 1084.99,556.85 1083.61,553.18"/>
    </edge>
    <edge id=":25977912_5" function="internal">
        <lane id=":25977912_5_0" index="0" disallow="tram rail_urban rail rail_electric rail_fast ship" speed="3.65" length="4.67" shape="1094.17,559.79 1092.82,559.29 1092.24,558.60 1092.45,557.73 1093.43,556.67"/>
    </edge>
    <edge id=":25977912_6" function="internal">
        <lane id=":25977912_6_0" index="0" disallow="tram rail_urban rail rail_electric rail_fast ship" speed="6.47" length="9.03" shape="1086.74,552.49 1087.61,554.81 1089.02,556.28 1090.96,556.90 1093.43,556.67"/>
    </edge>
    <edge id=":25977912_7" function="internal">
        <lane id=":25977912_7_0" index="0" disallow="tram rail_urban rail rail_electric rail_fast ship" speed="13.89" length="14.43" shape="1086.74,552.49 1089.98,566.55"/>
    </edge>
    <edge id=":25977912_8" function="internal">
        <lane id=":25977912_8_0" index="0" disallow="tram rail_urban rail rail_electric rail_fast ship" speed="3.65" length="2.34" shape="1086.74,552.49 1086.22,553.83 1085.52,554.40"/>
    </edge>
    <edge id=":25977912_11" function="internal">
        <lane id=":25977912_11_0" index="0" disallow="tram rail_urban rail rail_electric rail_fast ship" speed="3.65" length="2.34" shape="1085.52,554.40 1084.65,554.18 1083.61,553.18"/>
    </edge>
    <edge id=":25977913_0" function="internal">
        <lane id=":25977913_0_0" index="0" disallow="tram rail_urban rail rail_electric rail_fast ship" speed="6.59" length="9.12" shape="1094.06,596.83 1093.11,594.55 1091.65,593.10 1089.67,592.48 1087.16,592.70"/>
    </edge>
    <edge id=":25977913_1" function="internal">
        <lane id=":25977913_1_0" index="0" disallow="tram rail_urban rail rail_electric rail_fast ship" speed="13.89" length="14.38" shape="1094.06,596.83 1090.61,582.87"/>
    </edge>
    <edge id=":25977913_2" function="internal">
        <lane id=":25977913_2_0" index="0" disallow="tram rail_urban rail rail_electric rail_fast ship" speed="3.65" length="2.34" shape="1094.06,596.83 1094.54,595.47 1095.21,594.89"/>
    </edge>
    <edge id=":25977913_9" function="internal">
        <lane id=":25977913_9_0" index="0" disallow="tram rail_urban rail rail_electric rail_fast ship" speed="3.65" length="2.34" shape="1095.21,594.89 1096.09,595.08 1097.16,596.04"/>
    </edge>
    <edge id=":25977913_3" function="internal">
        <lane id=":25977913_3_0" index="0" disallow="tram rail_urban rail rail_electric rail_fast ship" speed="13.89" length="14.34" shape="1093.72,582.12 1097.16,596.04"/>
    </edge>
    <edge id=":25977913_4" function="internal">
        <lane id=":25977913_4_0" index="0" disallow="tram rail_urban rail rail_electric rail_fast ship" speed="7.98" length="5.87" shape="1093.72,582.12 1094.09,586.01 1093.49,587.88"/>
    </edge>
    <edge id=":25977913_5" function="internal">
        <lane id=":25977913_5_0" index="0" disallow="tram rail_urban rail rail_electric rail_fast ship" speed="3.65" length="2.34" shape="1093.72,582.12 1093.23,583.47 1092.54,584.05"/>
    </edge>
    <edge id=":25977913_10" function="internal">
        <lane id=":25977913_10_0" index="0" disallow="tram rail_urban rail rail_electric rail_fast ship" speed="7.98" length="8.37" shape="1093.49,587.88 1093.12,589.07 1090.81,591.30 1087.16,592.70"/>
    </edge>
    <edge id=":25977913_11" function="internal">
        <lane id=":25977913_11_0" index="0" disallow="tram rail_urban rail rail_electric rail_fast ship" speed="3.65" length="2.34" shape="1092.54,584.05 1091.67,583.85 1090.61,582.87"/>
    </edge>
    <edge id=":25977913_6" function="internal">
        <lane id=":25977913_6_0" index="0" disallow="tram rail_urban rail rail_electric rail_fast ship" speed="6.48" length="9.03" shape="1086.45,589.58 1088.76,588.69 1090.23,587.28 1090.84,585.34 1090.61,582.87"/>
    </edge>
    <edge id=":25977913_7" function="internal">
        <lane id=":25977913_7_0" index="0" disallow="tram rail_urban rail rail_electric rail_fast ship" speed="8.07" length="14.19" shape="1086.45,589.58 1090.33,589.25 1093.41,590.22 1095.69,592.48 1097.16,596.04"/>
    </edge>
    <edge id=":25977913_8" function="internal">
        <lane id=":25977913_8_0" index="0" disallow="tram rail_urban rail rail_electric rail_fast ship" speed="3.65" length="4.67" shape="1086.45,589.58 1087.80,590.09 1088.36,590.78 1088.15,591.65 1087.16,592.70"/>
    </edge>
    <edge id=":25977914_0" function="internal">
        <lane id=":25977914_0_0" index="0" disallow="tram rail_urban rail rail_electric rail_fast ship" speed="3.65" length="4.67" shape="1108.41,640.48 1107.92,641.84 1107.25,642.42 1106.37,642.23 1105.30,641.26"/>
    </edge>
    <edge id=":25977915_0" function="internal">
        <lane id=":25977915_0_0" index="0" disallow="tram rail_urban rail rail_electric rail_fast ship" speed="13.89" length="0.22" shape="1255.75,429.17 1255.75,429.10 1255.74,429.06 1255.73,429.01 1255.72,428.95"/>
    </edge>
    <edge id=":25977915_1" function="internal">
        <lane id=":25977915_1_0" index="0" disallow="tram rail_urban rail rail_electric rail_fast ship" speed="13.89" length="0.67" shape="1258.83,428.21 1258.88,428.40 1258.90,428.54 1258.92,428.67 1258.94,428.87"/>
    </edge>
    <edge id=":25977916_0" function="internal">
        <lane id=":25977916_0_0" index="0" disallow="tram rail_urban rail rail_electric rail_fast ship" speed="13.89" length="14.36" shape="1253.22,418.42 1249.85,404.46"/>
    </edge>
    <edge id=":25977916_1" function="internal">
        <lane id=":25977916_1_0" index="0" disallow="tram rail_urban rail rail_electric rail_fast ship" speed="8.01" length="5.86" shape="1253.22,418.42 1252.87,414.56 1253.48,412.67"/>
    </edge>
    <edge id=":25977916_2" function="internal">
        <lane id=":25977916_2_0" index="0" disallow="tram rail_urban rail rail_electric rail_fast ship" speed="3.65" length="2.34" shape="1253.22,418.42 1253.72,417.07 1254.41,416.49"/>
    </edge>
    <edge id=":25977916_9" function="internal">
        <lane id=":25977916_9_0" index="0" disallow="tram rail_urban rail rail_electric rail_fast ship" speed="8.01" length="8.33" shape="1253.48,412.67 1253.85,411.51 1256.15,409.27 1259.77,407.83"/>
    </edge>
    <edge id=":25977916_10" function="internal">
        <lane id=":25977916_10_0" index="0" disallow="tram rail_urban rail rail_electric rail_fast ship" speed="3.65" length="2.34" shape="1254.41,416.49 1255.28,416.70 1256.34,417.68"/>
    </edge>
    <edge id=":25977916_3" function="internal">
        <lane id=":25977916_3_0" index="0" disallow="tram rail_urban rail rail_electric rail_fast ship" speed="6.51" length="9.02" shape="1260.50,410.95 1258.20,411.86 1256.74,413.29 1256.12,415.23 1256.34,417.68"/>
    </edge>
    <edge id=":25977916_4" function="internal">
        <lane id=":25977916_4_0" index="0" disallow="tram rail_urban rail rail_electric rail_fast ship" speed="8.02" length="14.20" shape="1260.50,410.95 1256.63,411.31 1253.57,410.36 1251.30,408.07 1249.85,404.46"/>
    </edge>
    <edge id=":25977916_5" function="internal">
        <lane id=":25977916_5_0" index="0" disallow="tram rail_urban rail rail_electric rail_fast ship" speed="3.65" length="4.67" shape="1260.50,410.95 1259.15,410.44 1258.58,409.75 1258.79,408.88 1259.77,407.83"/>
    </edge>
    <edge id=":25977916_6" function="internal">
        <lane id=":25977916_6_0" index="0" disallow="tram rail_urban rail rail_electric rail_fast ship" speed="6.54" length="9.08" shape="1252.96,403.70 1253.89,406.00 1255.33,407.46 1257.29,408.07 1259.77,407.83"/>
    </edge>
    <edge id=":25977916_7" function="internal">
        <lane id=":25977916_7_0" index="0" disallow="tram rail_urban rail rail_electric rail_fast ship" speed="13.89" length="14.39" shape="1252.96,403.70 1256.34,417.68"/>
    </edge>
    <edge id=":25977916_8" function="internal">
        <lane id=":25977916_8_0" index="0" disallow="tram rail_urban rail rail_electric rail_fast ship" speed="3.65" length="2.34" shape="1252.96,403.70 1252.47,405.05 1251.79,405.63"/>
    </edge>
    <edge id=":25977916_11" function="internal">
        <lane id=":25977916_11_0" index="0" disallow="tram rail_urban rail rail_electric rail_fast ship" speed="3.65" length="2.34" shape="1251.79,405.63 1250.91,405.44 1249.85,404.46"/>
    </edge>
    <edge id=":25977924_0" function="internal">
        <lane id=":25977924_0_0" index="0" disallow="tram rail_urban rail rail_electric rail_fast ship" speed="6.51" length="9.02" shape="1303.76,242.08 1302.88,239.77 1301.46,238.30 1299.53,237.66 1297.06,237.87"/>
    </edge>
    <edge id=":25977924_1" function="internal">
        <lane id=":25977924_1_0" index="0" disallow="tram rail_urban rail rail_electric rail_fast ship" speed="13.89" length="14.38" shape="1303.76,242.08 1300.61,228.05"/>
    </edge>
    <edge id=":25977924_2" function="internal">
        <lane id=":25977924_2_0" index="0" disallow="tram rail_urban rail rail_electric rail_fast ship" speed="3.65" length="2.34" shape="1303.76,242.08 1304.28,240.73 1304.97,240.16"/>
    </edge>
    <edge id=":25977924_9" function="internal">
        <lane id=":25977924_9_0" index="0" disallow="tram rail_urban rail rail_electric rail_fast ship" speed="3.65" length="2.34" shape="1304.97,240.16 1305.84,240.37 1306.88,241.36"/>
    </edge>
    <edge id=":25977924_3" function="internal">
        <lane id=":25977924_3_0" index="0" disallow="tram rail_urban rail rail_electric rail_fast ship" speed="13.89" length="14.36" shape="1303.73,227.36 1306.88,241.36"/>
    </edge>
    <edge id=":25977924_4" function="internal">
        <lane id=":25977924_4_0" index="0" disallow="tram rail_urban rail rail_electric rail_fast ship" speed="8.01" length="5.89" shape="1303.73,227.36 1304.02,231.22 1303.39,233.13"/>
    </edge>
    <edge id=":25977924_5" function="internal">
        <lane id=":25977924_5_0" index="0" disallow="tram rail_urban rail rail_electric rail_fast ship" speed="3.65" length="2.34" shape="1303.73,227.36 1303.21,228.70 1302.51,229.26"/>
    </edge>
    <edge id=":25977924_10" function="internal">
        <lane id=":25977924_10_0" index="0" disallow="tram rail_urban rail rail_electric rail_fast ship" speed="8.01" length="8.29" shape="1303.39,233.13 1303.01,234.26 1300.69,236.48 1297.06,237.87"/>
    </edge>
    <edge id=":25977924_11" function="internal">
        <lane id=":25977924_11_0" index="0" disallow="tram rail_urban rail rail_electric rail_fast ship" speed="3.65" length="2.34" shape="1302.51,229.26 1301.65,229.05 1300.61,228.05"/>
    </edge>
    <edge id=":25977924_6" function="internal">
        <lane id=":25977924_6_0" index="0" disallow="tram rail_urban rail rail_electric rail_fast ship" speed="6.52" length="9.04" shape="1296.35,234.75 1298.67,233.86 1300.15,232.45 1300.79,230.51 1300.61,228.05"/>
    </edge>
    <edge id=":25977924_7" function="internal">
        <lane id=":25977924_7_0" index="0" disallow="tram rail_urban rail rail_electric rail_fast ship" speed="8.00" length="14.18" shape="1296.35,234.75 1300.22,234.43 1303.27,235.42 1305.49,237.74 1306.88,241.36"/>
    </edge>
    <edge id=":25977924_8" function="internal">