<additional>
<tazs>
<taz id="1" edges="-470429721#1">
</taz>
<taz id="2" edges="-470429721#1">
</taz>
<taz id="3" edges="-4947493#3">
</taz>
<taz id="4" edges="-4947493#3">
</taz>
<taz id="5" edges="-4947493#3">
</taz>
</tazs>
</additional>